26
 generated by VMD
 C        -7.419000        0.488000        0.530000
 C        -6.123000        1.237000        0.530000
 C        -5.324000        0.869000       -0.713000
 C        -7.419000       -0.849000        0.530000
 C        -8.716000       -1.597000        0.530000
 C        -9.501000       -1.236000       -0.692000
 O        -8.459000       -2.975000        0.529000
 C       -10.701000       -1.788000       -0.903000
 C        -6.402000        2.734000        0.529000
 C        -3.992000        0.256000       -0.299000
 H        -8.372000        1.038000        0.530000
 H        -5.539000        0.968000        1.439000
 H        -5.898000        0.133000       -1.319000
 H        -5.138000        1.785000       -1.319000
 H        -6.467000       -1.399000        0.530000
 H        -9.299000       -1.328000        1.439000
 H        -9.092000       -0.517000       -1.416000
 H        -9.295000       -3.410000        0.529000
 H       -11.278000       -1.522000       -1.801000
 H       -11.110000       -2.507000       -0.179000
 H        -5.438000        3.292000        0.529000
 H        -6.985000        3.003000        1.438000
 H        -6.985000        3.002000       -0.380000
 H        -3.408000       -0.012000       -1.208000
 H        -3.418000        0.993000        0.307000
 H        -4.178000       -0.659000        0.306000
